%NProcShared=4
%Chk=boricacid.chk
#p B3LYP/6-311++G(d,p) Opt freq temp=0 punch=derivatives SCF=Tight Pop=MK IOp(6/50=1) iop(6/42=8) iop(6/41=7)

boricacid

0  1
B          -0.75149         0.81022        -0.10775
O          -0.31512         2.15824        -0.46132
O          -2.02251         0.61173         0.58393
O           0.07174        -0.34103        -0.46763
H           0.24842         2.44646         0.30055
H          -2.68926         0.51039        -0.14151
H           0.69591        -0.44980         0.29373

antechamber-ini.esp

antechamber.esp